SOLUTION 0
  temp 25
  pH 7.0
  pe 4
  units mg/L
  Na 100
  Cl 100
  N(5) 50
END

SOLUTION 1-100 like 0
END

TRANSPORT
  cells 100
  shifts 100
  time_step 1.0
  boundary_conditions flux flux
  flow_direction forward
  dispersivity 1.0
END